results/congestion_identification/tables/scenario_bus_metrics__sev_3p5kw.csv
bus,distance_km,va_pu,vb_pu,vc_pu,margin_low_a,margin_high_a,risk_a,viol_a_low,viol_a_high,margin_low_b,margin_high_b,risk_b,viol_b_low,viol_b_high,margin_low_c,margin_high_c,risk_c,viol_c_low,viol_c_high,bus_risk,vuf,vuf_viol,any_voltage_viol
101,0.070017341,0.9674622097530984,0.9917997218770036,1.009636820367143,0.027462209753098432,0.1325377902469017,0.027462209753098432,false,false,0.05179972187700366,0.10820027812299648,0.05179972187700366,false,false,0.06963682036714314,0.090363179632857,0.06963682036714314,false,false,0.027462209753098432,0.006668076557704388,false,false
475,0.19288306100000005,0.9519694670326694,0.9889709357852022,1.0143319023760904,0.011969467032669434,0.1480305329673307,0.011969467032669434,false,false,0.048970935785202285,0.11102906421479786,0.048970935785202285,false,false,0.07433190237609044,0.0856680976239097,0.07433190237609044,false,false,0.011969467032669434,0.009813171461169829,false,false
619,0.24424393100000003,0.9509631271945982,0.989002255867969,1.0145389356328949,0.010963127194598243,0.1490368728054019,0.010963127194598243,false,false,0.049002255867969025,0.11099774413203112,0.049002255867969025,false,false,0.07453893563289493,0.08546106436710521,0.07453893563289493,false,false,0.010963127194598243,0.010018369065726632,false,false
505,0.157044805,0.9544817884261568,0.984588617974268,1.0154768141733208,0.014481788426156883,0.14551821157384326,0.014481788426156883,false,false,0.04458861797426805,0.11541138202573209,0.04458861797426805,false,false,0.07547681417332086,0.08452318582667928,0.07547681417332086,false,false,0.014481788426156883,0.009397246920696139,false,false
332,0.14164547100000002,0.9559473650474422,0.9879553273787536,1.0137888228555982,0.015947365047442208,0.14405263495255793,0.015947365047442208,false,false,0.04795532737875363,0.11204467262124651,0.04795532737875363,false,false,0.07378882285559829,0.08621117714440185,0.07378882285559829,false,false,0.015947365047442208,0.009032201551375144,false,false
817,0.20151218600000004,0.9524023643129323,0.9834402241424657,1.016358241047903,0.012402364312932401,0.14759763568706774,0.012402364312932401,false,false,0.04344022414246573,0.11655977585753441,0.04344022414246573,false,false,0.07635824104790312,0.08364175895209702,0.07635824104790312,false,false,0.012402364312932401,0.009841222089051605,false,false
453,0.17930876100000004,0.9525746144653056,0.9888416834899338,1.0142410700991766,0.012574614465305611,0.14742538553469453,0.012574614465305611,false,false,0.048841683489933896,0.11115831651006625,0.048841683489933896,false,false,0.07424107009917669,0.08575892990082346,0.07424107009917669,false,false,0.012574614465305611,0.00969256845965541,false,false
289,0.09733513099999999,0.963514644325563,0.9908036471896846,1.0107180591075553,0.02351464432556305,0.1364853556744371,0.02351464432556305,false,false,0.050803647189684664,0.10919635281031548,0.050803647189684664,false,false,0.07071805910755535,0.08928194089244479,0.07071805910755535,false,false,0.02351464432556305,0.007504794512684609,false,false
596,0.22983433100000003,0.9509629407677854,0.9891229957558849,1.0145031891220466,0.010962940767785478,0.14903705923221466,0.010962940767785478,false,false,0.04912299575588497,0.11087700424411517,0.04912299575588497,false,false,0.07450318912204668,0.08549681087795347,0.07450318912204668,false,false,0.010962940767785478,0.010015766958583952,false,false
387,0.121525759,0.9597818884327397,0.9881213766204732,1.012783992113519,0.019781888432739758,0.14021811156726038,0.019781888432739758,false,false,0.04812137662047322,0.11187862337952692,0.04812137662047322,false,false,0.07278399211351916,0.08721600788648098,0.07278399211351916,false,false,0.019781888432739758,0.008272492335375367,false,false
666,0.17654625600000004,0.9529066335181128,0.9832872598068482,1.0163539751990083,0.012906633518112831,0.1470933664818873,0.012906633518112831,false,false,0.04328725980684822,0.11671274019315192,0.04328725980684822,false,false,0.07635397519900833,0.08364602480099181,0.07635397519900833,false,false,0.012906633518112831,0.009742269721375485,false,false
906,0.278199666,0.9466611366313065,0.9838751492102042,1.017599502260902,0.006661136631306519,0.15333886336869362,0.006661136631306519,false,false,0.0438751492102043,0.11612485078979584,0.0438751492102043,false,false,0.07759950226090195,0.08240049773909819,0.07759950226090195,false,false,0.006661136631306519,0.010961424521940807,false,false
891,0.22037078500000004,0.9498095930260247,0.9832212688264736,1.017133177836984,0.009809593026024799,0.15019040697397534,0.009809593026024799,false,false,0.0432212688264737,0.11677873117352644,0.0432212688264737,false,false,0.07713317783698415,0.082866822163016,0.07713317783698415,false,false,0.009809593026024799,0.010356688897908825,false,false
59,0.056641121,0.9726869294181405,0.9936634094902057,1.0079093890932964,0.03268692941814055,0.1273130705818596,0.03268692941814055,false,false,0.05366340949020576,0.10633659050979438,0.05366340949020576,false,false,0.06790938909329647,0.09209061090670367,0.06790938909329647,false,false,0.03268692941814055,0.005574720613588403,false,false
530,0.141416429,0.9570749016747732,0.9860736044990109,1.0142465253232447,0.017074901674773213,0.14292509832522693,0.017074901674773213,false,false,0.04607360449901099,0.11392639550098915,0.04607360449901099,false,false,0.07424652532324472,0.08575347467675543,0.07424652532324472,false,false,0.017074901674773213,0.008852235525249174,false,false
34,0.034119541,0.986298951360406,0.9982458754977623,1.0033786654638113,0.04629895136040607,0.11370104863959407,0.04629895136040607,false,false,0.05824587549776239,0.10175412450223775,0.05824587549776239,false,false,0.06337866546381132,0.09662133453618882,0.06337866546381132,false,false,0.04629895136040607,0.002793337676745466,false,false
594,0.164756106,0.9538275315843924,0.9840702133098496,1.0158337334797518,0.013827531584392427,0.14617246841560771,0.013827531584392427,false,false,0.044070213309849615,0.11592978669015053,0.044070213309849615,false,false,0.07583373347975186,0.08416626652024828,0.07583373347975186,false,false,0.013827531584392427,0.009539667125464966,false,false
651,0.23560451100000004,0.9508240096499037,0.9891988758096634,1.0144812852511942,0.01082400964990371,0.14917599035009643,0.01082400964990371,false,false,0.04919887580966342,0.11080112419033672,0.04919887580966342,false,false,0.07448128525119424,0.0855187147488059,0.07448128525119424,false,false,0.01082400964990371,0.010046962052428922,false,false
522,0.167517005,0.9543750626720904,0.9846209663816744,1.0154777391542504,0.014375062672090433,0.1456249373279097,0.014375062672090433,false,false,0.044620966381674454,0.11537903361832569,0.044620966381674454,false,false,0.07547773915425049,0.08452226084574965,0.07547773915425049,false,false,0.014375062672090433,0.009418381016270341,false,false
676,0.24095110100000006,0.9507722443641767,0.9892145563204219,1.0144817974320972,0.010772244364176786,0.14922775563582336,0.010772244364176786,false,false,0.04921455632042193,0.11078544367957821,0.04921455632042193,false,false,0.07448179743209726,0.08551820256790288,0.07448179743209726,false,false,0.010772244364176786,0.010058141382109075,false,false
539,0.147000129,0.9570749549046693,0.9860296098840426,1.0142595803560344,0.01707495490466937,0.14292504509533077,0.01707495490466937,false,false,0.0460296098840427,0.11397039011595744,0.0460296098840427,false,false,0.07425958035603442,0.08574041964396573,0.07425958035603442,false,false,0.01707495490466937,0.008854260450933436,false,false
127,0.082987971,0.9643939682940115,0.9905382329176594,1.0107096298301665,0.024393968294011525,0.13560603170598862,0.024393968294011525,false,false,0.050538232917659465,0.10946176708234068,0.050538232917659465,false,false,0.0707096298301666,0.08929037016983354,0.0707096298301666,false,false,0.024393968294011525,0.00732052285674501,false,false
884,0.270107986,0.9467689178604223,0.9838424150206497,1.0175985474689566,0.00676891786042233,0.1532310821395778,0.00676891786042233,false,false,0.04384241502064978,0.11615758497935036,0.04384241502064978,false,false,0.07759854746895667,0.08240145253104347,0.07759854746895667,false,false,0.00676891786042233,0.010939416058355246,false,false
739,0.23412883600000006,0.9460872510521112,0.9842133629968679,1.0174264851110701,0.0060872510521112755,0.15391274894788887,0.0060872510521112755,false,false,0.044213362996867955,0.11578663700313219,0.044213362996867955,false,false,0.0774264851110702,0.08257351488892994,0.0774264851110702,false,false,0.0060872510521112755,0.011089805890442908,false,false
276,0.117152381,0.9639227323048535,0.990656860194925,1.0107336143647672,0.023922732304853533,0.1360772676951466,0.023922732304853533,false,false,0.0506568601949251,0.10934313980507504,0.0506568601949251,false,false,0.07073361436476722,0.08926638563523293,0.07073361436476722,false,false,0.023922732304853533,0.007420681838477476,false,false
778,0.20167822600000004,0.9522575632860445,0.9802166087956289,1.017473482797761,0.012257563286044548,0.1477424367139556,0.012257563286044548,false,false,0.04021660879562894,0.1197833912043712,0.04021660879562894,false,false,0.077473482797761,0.08252651720223914,0.077473482797761,false,false,0.012257563286044548,0.010042639808616916,false,false
691,0.19670126600000004,0.9514153133404704,0.9828223921381701,1.0169284457486358,0.011415313340470412,0.14858468665952973,0.011415313340470412,false,false,0.042822392138170184,0.11717760786182996,0.042822392138170184,false,false,0.07692844574863589,0.08307155425136425,0.07692844574863589,false,false,0.011415313340470412,0.010052212143554368,false,false
458,0.144599145,0.9577981323881584,0.9855310507068615,1.014186373301367,0.017798132388158416,0.14220186761184173,0.017798132388158416,false,false,0.04553105070686159,0.11446894929313856,0.04553105070686159,false,false,0.07418637330136701,0.08581362669863313,0.07418637330136701,false,false,0.017798132388158416,0.008747987153842268,false,false
745,0.23987546600000004,0.9475978802733458,0.9835847966321105,1.0175249595183904,0.007597880273345847,0.1524021197266543,0.007597880273345847,false,false,0.04358479663211057,0.11641520336788957,0.04358479663211057,false,false,0.07752495951839045,0.0824750404816097,0.07752495951839045,false,false,0.007597880273345847,0.010779872810724995,false,false
556,0.151217029,0.9570749973577173,0.9859946656447929,1.0142699498038978,0.017074997357717336,0.1429250026422828,0.017074997357717336,false,false,0.04599466564479293,0.11400533435520721,0.04599466564479293,false,false,0.0742699498038979,0.08573005019610225,0.0742699498038979,false,false,0.017074997357717336,0.008855877985203788,false,false
263,0.111071681,0.9592904195499167,0.9877189725816025,1.0130814916609538,0.019290419549916726,0.14070958045008342,0.019290419549916726,false,false,0.047718972581602515,0.11228102741839763,0.047718972581602515,false,false,0.0730814916609539,0.08691850833904624,0.0730814916609539,false,false,0.019290419549916726,0.008375807329745433,false,false
896,0.22362948500000004,0.9497768176363428,0.9832312179542614,1.017133458679488,0.00977681763634286,0.15022318236365728,0.00977681763634286,false,false,0.043231217954261436,0.1167687820457387,0.043231217954261436,false,false,0.07713345867948807,0.08286654132051208,0.07713345867948807,false,false,0.00977681763634286,0.01036321216103702,false,false
83,0.047656331,0.9803662078885063,0.996788208165127,1.0051248769385819,0.04036620788850631,0.11963379211149383,0.04036620788850631,false,false,0.056788208165127085,0.10321179183487306,0.056788208165127085,false,false,0.06512487693858193,0.09487512306141821,0.06512487693858193,false,false,0.04036620788850631,0.004000702705825194,false,false
868,0.28540650600000006,0.9462538721948036,0.983960952356037,1.0177158769479466,0.006253872194803667,0.15374612780519648,0.006253872194803667,false,false,0.04396095235603703,0.11603904764396311,0.04396095235603703,false,false,0.07771587694794668,0.08228412305205346,0.07771587694794668,false,false,0.006253872194803667,0.011031258719707929,false,false
802,0.262138866,0.9469564355363428,0.9837820720572839,1.0176025302511336,0.006956435536342842,0.1530435644636573,0.006956435536342842,false,false,0.043782072057283905,0.11621792794271624,0.043782072057283905,false,false,0.07760253025113362,0.08239746974886653,0.07760253025113362,false,false,0.006956435536342842,0.010901655177708953,false,false
27,0.028768241,0.9866080427693317,0.998153218907619,1.0033755599447731,0.046608042769331726,0.11339195723066842,0.046608042769331726,false,false,0.05815321890761904,0.1018467810923811,0.05815321890761904,false,false,0.06337555994477317,0.09662444005522697,0.06337555994477317,false,false,0.046608042769331726,0.002724194036620968,false,false
208,0.116354311,0.9672719333698604,0.9915108941150819,1.0097812942729283,0.027271933369860446,0.1327280666301397,0.027271933369860446,false,false,0.05151089411508192,0.10848910588491822,0.05151089411508192,false,false,0.06978129427292834,0.0902187057270718,0.06978129427292834,false,false,0.027271933369860446,0.006721387369170108,false,false
688,0.18761383600000003,0.9529969004718591,0.9835033028545104,1.016236686093003,0.012996900471859196,0.14700309952814095,0.012996900471859196,false,false,0.04350330285451043,0.11649669714548971,0.04350330285451043,false,false,0.07623668609300305,0.0837633139069971,0.07623668609300305,false,false,0.012996900471859196,0.009719394786799172,false,false
780,0.257877766,0.947598785956129,0.9833046392056168,1.0176078308082728,0.007598785956129062,0.15240121404387108,0.007598785956129062,false,false,0.04330463920561689,0.11669536079438325,0.04330463920561689,false,false,0.07760783080827283,0.08239216919172732,0.07760783080827283,false,false,0.007598785956129062,0.010792823933685348,false,false
178,0.103229811,0.9661665693437783,0.9921564968029867,1.0096913277848643,0.026166569343778368,0.13383343065622177,0.026166569343778368,false,false,0.05215649680298673,0.10784350319701341,0.05215649680298673,false,false,0.06969132778486431,0.09030867221513583,0.06969132778486431,false,false,0.026166569343778368,0.006947756000503483,false,false
544,0.21960006100000004,0.9511957590352476,0.9891400619527964,1.0144240123569297,0.01119575903524761,0.14880424096475253,0.01119575903524761,false,false,0.04914006195279641,0.11085993804720373,0.04914006195279641,false,false,0.07442401235692975,0.0855759876430704,0.07442401235692975,false,false,0.01119575903524761,0.00997123713483908,false,false
225,0.129587811,0.9670537987188005,0.9918608558697976,1.0097084445885358,0.027053798718800537,0.1329462012811996,0.027053798718800537,false,false,0.051860855869797606,0.10813914413020254,0.051860855869797606,false,false,0.06970844458853587,0.09029155541146427,0.06970844458853587,false,false,0.027053798718800537,0.006762204649616273,false,false
899,0.2947454360000001,0.9459556598060592,0.9840261330700076,1.0177719989204013,0.005955659806059277,0.15404434019394087,0.005955659806059277,false,false,0.04402613307000769,0.11597386692999245,0.04402613307000769,false,false,0.07777199892040132,0.08222800107959882,0.07777199892040132,false,false,0.005955659806059277,0.011085617291307678,false,false
249,0.137424511,0.9669132846878785,0.9919031069300641,1.0097131341712542,0.02691328468787857,0.13308671531212157,0.02691328468787857,false,false,0.05190310693006417,0.10809689306993597,0.05190310693006417,false,false,0.06971313417125424,0.0902868658287459,0.06971313417125424,false,false,0.02691328468787857,0.006792603755111162,false,false
562,0.22625546100000005,0.9511252691513289,0.9891614130864468,1.014424707708236,0.011125269151328943,0.1488747308486712,0.011125269151328943,false,false,0.04916141308644684,0.1108385869135533,0.04916141308644684,false,false,0.07442470770823606,0.08557529229176408,0.07442470770823606,false,false,0.011125269151328943,0.00998642961366655,false,false
559,0.22189104100000004,0.951074524354009,0.9891229919413915,1.0144788106218479,0.011074524354009019,0.14892547564599112,0.011074524354009019,false,false,0.04912299194139158,0.11087700805860856,0.04912299194139158,false,false,0.07447881062184791,0.08552118937815223,0.07447881062184791,false,false,0.011074524354009019,0.009992934556185369,false,false
794,0.259335766,0.9469886551344624,0.9837756795924752,1.0175966047124914,0.0069886551344624515,0.1530113448655377,0.0069886551344624515,false,false,0.0437756795924753,0.11622432040752484,0.0437756795924753,false,false,0.07759660471249141,0.08240339528750873,0.07759660471249141,false,false,0.0069886551344624515,0.010894628749261184,false,false
327,0.12914669199999998,0.9643367651859222,0.9903589902744765,1.0107806127741983,0.024336765185922205,0.13566323481407794,0.024336765185922205,false,false,0.050358990274476545,0.1096410097255236,0.050358990274476545,false,false,0.07078061277419834,0.0892193872258018,0.07078061277419834,false,false,0.024336765185922205,0.007337088726958998,false,false
171,0.096992511,0.9672723441726909,0.9917953062185938,1.0096966346559462,0.027272344172690977,0.13272765582730917,0.027272344172690977,false,false,0.05179530621859385,0.10820469378140629,0.05179530621859385,false,false,0.06969663465594622,0.09030336534405392,0.06969663465594622,false,false,0.027272344172690977,0.006713924331297507,false,false
502,0.20983856100000006,0.9517353292847801,0.9890418476140199,1.0143341968884336,0.01173532928478016,0.14826467071521998,0.01173532928478016,false,false,0.04904184761401997,0.11095815238598017,0.04904184761401997,false,false,0.07433419688843368,0.08566580311156646,0.07433419688843368,false,false,0.01173532928478016,0.009863405711525724,false,false
247,0.107002101,0.9599290701450004,0.9880768716111907,1.0127826369311281,0.01992907014500045,0.1400709298549997,0.01992907014500045,false,false,0.048076871611190786,0.11192312838880936,0.048076871611190786,false,false,0.07278263693112819,0.08721736306887196,0.07278263693112819,false,false,0.01992907014500045,0.008242470388559067,false,false
835,0.256406886,0.947598760844582,0.9833123664301183,1.0176055450445811,0.007598760844582109,0.15240123915541803,0.007598760844582109,false,false,0.043312366430118376,0.11668763356988177,0.043312366430118376,false,false,0.07760554504458117,0.08239445495541897,0.07760554504458117,false,false,0.007598760844582109,0.010792460937661473,false,false
785,0.175696984,0.9533081150794602,0.9846718840059994,1.0156259561774719,0.013308115079460281,0.14669188492053986,0.013308115079460281,false,false,0.04467188400599942,0.11532811599400072,0.04467188400599942,false,false,0.07562595617747192,0.08437404382252822,0.07562595617747192,false,false,0.013308115079460281,0.009635091370121434,false,false
611,0.22597707100000003,0.9511410281592321,0.9891566397275048,1.0144245522091828,0.011141028159232125,0.14885897184076802,0.011141028159232125,false,false,0.049156639727504836,0.1108433602724953,0.049156639727504836,false,false,0.07442455220918287,0.08557544779081727,0.07442455220918287,false,false,0.011141028159232125,0.009983032267239622,false,false
248,0.137424511,0.9669228093633842,0.9919002347919675,1.0097130416221538,0.026922809363384204,0.13307719063661594,0.026922809363384204,false,false,0.05190023479196759,0.10809976520803255,0.05190023479196759,false,false,0.06971304162215386,0.09028695837784628,0.06971304162215386,false,false,0.026922809363384204,0.006790596033042265,false,false
342,0.126039431,0.9592909195948723,0.9868705812572756,1.0133334232289366,0.01929091959487239,0.14070908040512775,0.01929091959487239,false,false,0.04687058125727561,0.11312941874272453,0.04687058125727561,false,false,0.07333342322893666,0.08666657677106349,0.07333342322893666,false,false,0.01929091959487239,0.00841184483074033,false,false
639,0.25548595100000004,0.9502671555362528,0.9892921157816338,1.0146225505309654,0.010267155536252903,0.14973284446374724,0.010267155536252903,false,false,0.04929211578163384,0.1107078842183663,0.04929211578163384,false,false,0.07462255053096545,0.0853774494690347,0.07462255053096545,false,false,0.010267155536252903,0.010150367219333555,false,false
264,0.117678811,0.9672719049836633,0.9914909851474154,1.0097872205678113,0.027271904983663386,0.13272809501633676,0.027271904983663386,false,false,0.05149098514741546,0.10850901485258468,0.05149098514741546,false,false,0.06978722056781139,0.09021277943218875,0.06978722056781139,false,false,0.027271904983663386,0.006721936643996342,false,false
32,0.035485741,0.9815154182991888,0.9964431433363927,1.0051133789083835,0.04151541829918881,0.11848458170081133,0.04151541829918881,false,false,0.056443143336392776,0.10355685666360737,0.056443143336392776,false,false,0.06511337890838353,0.09488662109161661,0.06511337890838353,false,false,0.04151541829918881,0.0037498092044413543,false,false
320,0.132938741,0.9643367686144886,0.9903632387528919,1.0107793491900918,0.024336768614488635,0.1356632313855115,0.024336768614488635,false,false,0.05036323875289195,0.1096367612471082,0.05036323875289195,false,false,0.07077934919009188,0.08922065080990826,0.07077934919009188,false,false,0.024336768614488635,0.007336960403183068,false,false
155,0.084692511,0.9673095818147248,0.9918118206296834,1.0096801994815878,0.02730958181472487,0.13269041818527527,0.02730958181472487,false,false,0.05181182062968348,0.10818817937031666,0.05181182062968348,false,false,0.06968019948158788,0.09031980051841226,0.06968019948158788,false,false,0.02730958181472487,0.006705903020727252,false,false
701,0.20077766600000005,0.9522632118489937,0.9783997042930447,1.0180119977181497,0.012263211848993705,0.14773678815100644,0.012263211848993705,false,false,0.038399704293044734,0.12160029570695541,0.038399704293044734,false,false,0.0780119977181497,0.08198800228185044,0.0780119977181497,false,false,0.012263211848993705,0.010179709953489576,false,false
682,0.24162945100000005,0.950772280370111,0.9892145454136384,1.01448179707575,0.01077228037011102,0.14922771962988912,0.01077228037011102,false,false,0.049214545413638455,0.11078545458636169,0.049214545413638455,false,false,0.07448179707575009,0.08551820292425005,0.07448179707575009,false,false,0.01077228037011102,0.010058133604384166,false,false
196,0.111128611,0.9672261950204123,0.9918088712561941,1.00970677356436,0.027226195020412347,0.1327738049795878,0.027226195020412347,false,false,0.051808871256194156,0.10819112874380599,0.051808871256194156,false,false,0.06970677356435995,0.0902932264356402,0.06970677356435995,false,false,0.027226195020412347,0.006725976871926417,false,false
707,0.20762276600000004,0.950049714982963,0.9831483794400331,1.0171311238056018,0.010049714982963032,0.1499502850170371,0.010049714982963032,false,false,0.043148379440033136,0.116851620559967,0.043148379440033136,false,false,0.07713112380560183,0.08286887619439831,0.07713112380560183,false,false,0.010049714982963032,0.010308982396060805,false,false
718,0.22286866600000005,0.9481130221324773,0.983598196111656,1.0174085862477182,0.008113022132477332,0.1518869778675228,0.008113022132477332,false,false,0.04359819611165605,0.11640180388834409,0.04359819611165605,false,false,0.07740858624771829,0.08259141375228185,0.07740858624771829,false,false,0.008113022132477332,0.01067604756650687,false,false
226,0.118500011,0.9672103620987985,0.991813525210036,1.0097102520734362,0.02721036209879857,0.13278963790120157,0.02721036209879857,false,false,0.051813525210036016,0.10818647478996413,0.051813525210036016,false,false,0.06971025207343629,0.09028974792656386,0.06971025207343629,false,false,0.02721036209879857,0.006730112204775978,false,false
614,0.178760406,0.9538278332268021,0.9839301491950005,1.0158752537597784,0.013827833226802144,0.146172166773198,0.013827833226802144,false,false,0.0439301491950006,0.11606985080499954,0.0439301491950006,false,false,0.07587525375977844,0.0841247462402217,0.07587525375977844,false,false,0.013827833226802144,0.009546962710846013,false,false
755,0.24090663600000006,0.9460275215939324,0.9842315025153698,1.0174270196317285,0.006027521593932494,0.15397247840606765,0.006027521593932494,false,false,0.04423150251536989,0.11576849748463025,0.04423150251536989,false,false,0.0774270196317286,0.08257298036827154,0.0774270196317286,false,false,0.006027521593932494,0.011102144816002987,false,false
702,0.21167596600000005,0.9512840777889764,0.982862220066203,1.016929549213236,0.011284077788976443,0.1487159222110237,0.011284077788976443,false,false,0.042862220066203105,0.11713777993379704,0.042862220066203105,false,false,0.07692954921323603,0.08307045078676412,0.07692954921323603,false,false,0.011284077788976443,0.010077918582460833,false,false
898,0.28044428600000004,0.946717598461976,0.9838584706279261,1.017602413345391,0.00671759846197606,0.15328240153802408,0.00671759846197606,false,false,0.04385847062792614,0.116141529372074,0.04385847062792614,false,false,0.07760241334539097,0.08239758665460917,0.07760241334539097,false,false,0.00671759846197606,0.01094929186298665,false,false
261,0.110267781,0.9639735930485164,0.9906415083623077,1.0107331268441855,0.02397359304851643,0.1360264069514837,0.02397359304851643,false,false,0.05064150836230774,0.1093584916376924,0.05064150836230774,false,false,0.07073312684418553,0.08926687315581461,0.07073312684418553,false,false,0.02397359304851643,0.007410031425731653,false,false
854,0.19402790600000003,0.9524645873202086,0.9834213491610875,1.016357713212667,0.012464587320208609,0.14753541267979153,0.012464587320208609,false,false,0.04342134916108753,0.11657865083891261,0.04342134916108753,false,false,0.07635771321266716,0.08364228678733299,0.07635771321266716,false,false,0.012464587320208609,0.0098289735309084,false,false
337,0.147722971,0.9565717713989298,0.9876696929218234,1.0137413926756087,0.016571771398929847,0.1434282286010703,0.016571771398929847,false,false,0.04766969292182344,0.1123303070781767,0.04766969292182344,false,false,0.07374139267560875,0.08625860732439139,0.07374139267560875,false,false,0.016571771398929847,0.008915953679759782,false,false
690,0.19432036600000005,0.9522574663471578,0.9802490072550416,1.0174638810029866,0.012257466347157853,0.1477425336528423,0.012257466347157853,false,false,0.04024900725504166,0.11975099274495848,0.04024900725504166,false,false,0.07746388100298662,0.08253611899701352,0.07746388100298662,false,false,0.012257466347157853,0.010040362511334755,false,false
373,0.12336469500000001,0.9577968635211133,0.9867437222789166,1.0138264292138357,0.017796863521113315,0.14220313647888683,0.017796863521113315,false,false,0.046743722278916655,0.11325627772108349,0.046743722278916655,false,false,0.07382642921383575,0.08617357078616439,0.07382642921383575,false,false,0.017796863521113315,0.008690890004176997,false,false
283,0.125821891,0.9643367876784829,0.9903868110436564,1.0107723383191527,0.024336787678482907,0.13566321232151723,0.024336787678482907,false,false,0.0503868110436565,0.10961318895634364,0.0503868110436565,false,false,0.07077233831915275,0.08922766168084739,0.07077233831915275,false,false,0.024336787678482907,0.007336251072334973,false,false
508,0.20894164100000004,0.9514001226386367,0.9890781616441843,1.0144219993911245,0.011400122638636767,0.14859987736136337,0.011400122638636767,false,false,0.049078161644184326,0.11092183835581582,0.049078161644184326,false,false,0.0744219993911246,0.08557800060887555,0.0744219993911246,false,false,0.011400122638636767,0.009927247049938328,false,false
813,0.23988498900000005,0.9451024114291491,0.9845124658652971,1.017435344226563,0.005102411429149134,0.154897588570851,0.005102411429149134,false,false,0.04451246586529711,0.11548753413470303,0.04451246586529711,false,false,0.07743534422656295,0.08256465577343719,0.07743534422656295,false,false,0.005102411429149134,0.011294222987025104,false,false
188,0.109440711,0.9672720177632148,0.991569881307576,1.009763735641015,0.027272017763214862,0.13272798223678528,0.027272017763214862,false,false,0.051569881307576004,0.10843011869242414,0.051569881307576004,false,false,0.06976373564101501,0.09023626435898513,0.06976373564101501,false,false,0.027272017763214862,0.0067197805712405,false,false
629,0.19583531100000004,0.9511925075500693,0.9892602534253424,1.0142546136166475,0.011192507550069397,0.14880749244993074,0.011192507550069397,false,false,0.04926025342534246,0.11073974657465768,0.04926025342534246,false,false,0.07425461361664754,0.0857453863833526,0.07425461361664754,false,false,0.011192507550069397,0.009989556488932249,false,false
900,0.23006408500000003,0.949724503205428,0.9832470983127874,1.017133907169886,0.009724503205428059,0.15027549679457208,0.009724503205428059,false,false,0.0432470983127875,0.11675290168721264,0.0432470983127875,false,false,0.077133907169886,0.08286609283011415,0.077133907169886,false,false,0.009724503205428059,0.010373630000006882,false,false
697,0.19889196600000003,0.9512472252265164,0.9828632308315772,1.016962072077068,0.011247225226516444,0.1487527747734837,0.011247225226516444,false,false,0.04286323083157728,0.11713676916842286,0.04286323083157728,false,false,0.07696207207706807,0.08303792792293208,0.07696207207706807,false,false,0.011247225226516444,0.01008492716196006,false,false
sourcebus,0.0,0.9999999984102981,0.9999999998472243,0.9999999999533314,0.05999999841029813,0.10000000158970201,0.05999999841029813,false,false,0.05999999984722437,0.10000000015277577,0.05999999984722437,false,false,0.059999999953331495,0.10000000004666865,0.059999999953331495,false,false,0.05999999841029813,4.976055469075833e-10,false,false
66,0.064899421,0.9722797068695215,0.993786002487265,1.007913389826012,0.03227970686952153,0.1277202931304786,0.03227970686952153,false,false,0.05378600248726506,0.10621399751273508,0.05378600248726506,false,false,0.06791338982601203,0.09208661017398811,0.06791338982601203,false,false,0.03227970686952153,0.005661260310694234,false,false
763,0.250748766,0.9475985706165607,0.9833709785666025,1.0175882072447329,0.007598570616560774,0.15240142938343937,0.007598570616560774,false,false,0.04337097856660255,0.1166290214333976,0.04337097856660255,false,false,0.07758820724473292,0.08241179275526722,0.07758820724473292,false,false,0.007598570616560774,0.010789718232865675,false,false
241,0.132122311,0.9669656680810637,0.9918873109023907,1.0097126252875586,0.02696566808106371,0.13303433191893643,0.02696566808106371,false,false,0.05188731090239074,0.1081126890976094,0.05188731090239074,false,false,0.06971262528755862,0.09028737471244153,0.06971262528755862,false,false,0.02696566808106371,0.0067815651643939445,false,false
686,0.18617586600000005,0.9522507248393578,0.9826173689066418,1.0167620658540173,0.012250724839357852,0.1477492751606423,0.012250724839357852,false,false,0.042617368906641806,0.11738263109335834,0.042617368906641806,false,false,0.07676206585401735,0.0832379341459828,0.07676206585401735,false,false,0.012250724839357852,0.00989015187652927,false,false
786,0.19173608600000003,0.9525022022405096,0.9834099389443887,1.01635739432485,0.012502202240509686,0.14749779775949046,0.012502202240509686,false,false,0.043409938944388715,0.11659006105561143,0.043409938944388715,false,false,0.07635739432485011,0.08364260567515003,0.07635739432485011,false,false,0.012502202240509686,0.009821574287062583,false,false
388,0.14051565100000002,0.9570302559600665,0.9877419364734282,1.0135613879664624,0.017030255960066576,0.14296974403993357,0.017030255960066576,false,false,0.04774193647342828,0.11225806352657186,0.04774193647342828,false,false,0.0735613879664625,0.08643861203353764,0.0735613879664625,false,false,0.017030255960066576,0.008829151354343244,false,false
74,0.068936021,0.9721195994891153,0.9938342034555945,1.0079149676536876,0.03211959948911536,0.12788040051088478,0.03211959948911536,false,false,0.05383420345559453,0.10616579654440561,0.05383420345559453,false,false,0.06791496765368765,0.09208503234631249,0.06791496765368765,false,false,0.03211959948911536,0.0056954388966981165,false,false
839,0.27528196600000004,0.9466891405987736,0.9838658324843021,1.017633977362988,0.00668914059877368,0.15331085940122646,0.00668914059877368,false,false,0.0438658324843022,0.11613416751569794,0.0438658324843022,false,false,0.07763397736298816,0.08236602263701198,0.07763397736298816,false,false,0.00668914059877368,0.01095220050761181,false,false
578,0.15998157600000001,0.9542014397695756,0.9844010754246376,1.0156182051450575,0.014201439769575663,0.14579856023042448,0.014201439769575663,false,false,0.04440107542463767,0.11559892457536247,0.04440107542463767,false,false,0.07561820514505757,0.08438179485494257,0.07561820514505757,false,false,0.014201439769575663,0.00945747320549987,false,false
314,0.115069961,0.9638541753908952,0.9906775535632992,1.0107342719246752,0.023854175390895294,0.13614582460910485,0.023854175390895294,false,false,0.05067755356329928,0.10932244643670086,0.05067755356329928,false,false,0.0707342719246753,0.08926572807532485,0.0707342719246753,false,false,0.023854175390895294,0.007435049632525771,false,false
615,0.17384510600000003,0.9531123315062316,0.9834682924320981,1.0162357081268278,0.0131123315062317,0.14688766849376844,0.0131123315062317,false,false,0.043468292432098155,0.11653170756790199,0.043468292432098155,false,false,0.0762357081268279,0.08376429187317225,0.0762357081268279,false,false,0.0131123315062317,0.009696768735557828,false,false
25,0.022863341,0.987458772789702,0.9978982076772293,1.003367066015245,0.04745877278970201,0.11254122721029813,0.04745877278970201,false,false,0.05789820767722931,0.10210179232277083,0.05789820767722931,false,false,0.063367066015245,0.09663293398475514,0.063367066015245,false,false,0.04745877278970201,0.002536462669133414,false,false
114,0.078815261,0.9644399994447089,0.9905306859198768,1.0106977174899439,0.024439999444708982,0.13556000055529116,0.024439999444708982,false,false,0.05053068591987686,0.10946931408012328,0.05053068591987686,false,false,0.07069771748994391,0.08930228251005623,0.07069771748994391,false,false,0.024439999444708982,0.0073088763342417165,false,false
166,0.115415071,0.9643368870561134,0.9905083609299826,1.0107361872049894,0.024336887056113476,0.13566311294388667,0.024336887056113476,false,false,0.050508360929982676,0.10949163907001747,0.050508360929982676,false,false,0.07073618720498942,0.08926381279501072,0.07073618720498942,false,false,0.024336887056113476,0.0073326650433567404,false,false
886,0.29291489600000004,0.9461708374145504,0.9839790997214612,1.0177315036426953,0.00617083741455049,0.15382916258544965,0.00617083741455049,false,false,0.0439790997214613,0.11602090027853884,0.0439790997214613,false,false,0.07773150364269532,0.08226849635730482,0.07773150364269532,false,false,0.00617083741455049,0.011046378420912486,false,false
280,0.11606298100000001,0.9584964477275733,0.987366737634657,1.0134220866388377,0.018496447727573306,0.14150355227242684,0.018496447727573306,false,false,0.04736673763465704,0.1126332623653431,0.04736673763465704,false,false,0.07342208663883776,0.08657791336116238,0.07342208663883776,false,false,0.018496447727573306,0.008540731230901585,false,false
484,0.20315996100000006,0.9517950503686969,0.989023760135313,1.0143336110769987,0.011795050368696991,0.14820494963130315,0.011795050368696991,false,false,0.049023760135313066,0.11097623986468708,0.049023760135313066,false,false,0.07433361107699876,0.08566638892300138,0.07433361107699876,false,false,0.011795050368696991,0.009850581927949366,false,false
47,0.047364841000000005,0.9808917502746946,0.9966304031416577,1.005119601288808,0.040891750274694605,0.11910824972530554,0.040891750274694605,false,false,0.05663040314165779,0.10336959685834235,0.05663040314165779,false,false,0.065119601288808,0.09488039871119214,0.065119601288808,false,false,0.040891750274694605,0.0038852885833734036,false,false
73,0.068936021,0.9722407666848105,0.993797725518803,1.0079137733344326,0.03224076668481057,0.12775923331518957,0.03224076668481057,false,false,0.05379772551880302,0.10620227448119712,0.05379772551880302,false,false,0.0679137733344326,0.09208622666556754,0.0679137733344326,false,false,0.03224076668481057,0.005669565116780569,false,false
310,0.12429317100000001,0.9575657198517763,0.9875799040220807,1.0135564460504864,0.01756571985177635,0.1424342801482238,0.01756571985177635,false,false,0.04757990402208079,0.11242009597791935,0.04757990402208079,false,false,0.0735564460504865,0.08644355394951364,0.0735564460504865,false,false,0.01756571985177635,0.008719194507006593,false,false
406,0.15743077300000002,0.955829762003487,0.987990922918195,1.0137899249975142,0.01582976200348707,0.14417023799651307,0.01582976200348707,false,false,0.04799092291819507,0.11200907708180508,0.04799092291819507,false,false,0.07378992499751424,0.0862100750024859,0.07378992499751424,false,false,0.01582976200348707,0.009056639398901842,false,false
325,0.134972571,0.9565716570402428,0.9877900469775247,1.0137056883130418,0.016571657040242882,0.14342834295975726,0.016571657040242882,false,false,0.04779004697752476,0.11220995302247538,0.04779004697752476,false,false,0.0737056883130418,0.08629431168695834,0.0737056883130418,false,false,0.016571657040242882,0.008911682935385351,false,false
70,0.035515384,0.9860256846506793,0.9983277952025977,1.0033814191715331,0.046025684650679355,0.11397431534932079,0.046025684650679355,false,false,0.05832779520259779,0.10167220479740235,0.05832779520259779,false,false,0.06338141917153317,0.09661858082846697,0.06338141917153317,false,false,0.046025684650679355,0.002854837745594574,false,false
349,0.137189101,0.9572378199181314,0.9876791263355884,1.0135594687199698,0.017237819918131447,0.1427621800818687,0.017237819918131447,false,false,0.04767912633558846,0.11232087366441168,0.04767912633558846,false,false,0.07355946871996988,0.08644053128003026,0.07355946871996988,false,false,0.017237819918131447,0.008786437226765113,false,false
391,0.130735805,0.9570746980039765,0.9862437853656366,1.014196026111485,0.01707469800397654,0.1429253019960236,0.01707469800397654,false,false,0.04624378536563667,0.11375621463436347,0.04624378536563667,false,false,0.07419602611148512,0.08580397388851502,0.07419602611148512,false,false,0.01707469800397654,0.0088445238983868,false,false
587,0.22919195100000003,0.9509626683721045,0.98912589594507,1.0145023220913476,0.010962668372104578,0.14903733162789556,0.010962668372104578,false,false,0.04912589594507011,0.11087410405493003,0.04912589594507011,false,false,0.07450232209134766,0.08549767790865248,0.07450232209134766,false,false,0.010962668372104578,0.010015765082238991,false,false
604,0.23943445100000002,0.9508014017043677,0.9891762140011741,1.0145214845790906,0.010801401704367719,0.14919859829563242,0.010801401704367719,false,false,0.04917621400117411,0.11082378599882603,0.04917621400117411,false,false,0.07452148457909069,0.08547851542090945,0.07452148457909069,false,false,0.010801401704367719,0.010047784394296716,false,false
861,0.20153700600000002,0.9523906389019065,0.9834437809877693,1.0163583405590653,0.012390638901906503,0.14760936109809364,0.012390638901906503,false,false,0.043443780987769354,0.11655621901223079,0.043443780987769354,false,false,0.07635834055906532,0.08364165944093482,0.07635834055906532,false,false,0.012390638901906503,0.009843531433542572,false,false
860,0.19684790600000002,0.9524460744578797,0.9834269649172273,1.0163578702161602,0.012446074457879708,0.14755392554212043,0.012446074457879708,false,false,0.043426964917227306,0.11657303508277284,0.043426964917227306,false,false,0.07635787021616025,0.08364212978383989,0.07635787021616025,false,false,0.012446074457879708,0.00983261664914462,false,false
563,0.20870813100000005,0.9517505009869685,0.9890372526137909,1.0143340480332852,0.011750500986968504,0.14824949901303164,0.011750500986968504,false,false,0.049037252613790994,0.11096274738620915,0.049037252613790994,false,false,0.07433404803328525,0.08566595196671489,0.07433404803328525,false,false,0.011750500986968504,0.009860147236386375,false,false
145,0.099082571,0.964334371950624,0.9905326125292018,1.0107296766351375,0.024334371950624045,0.1356656280493761,0.024334371950624045,false,false,0.050532612529201826,0.10946738747079832,0.050532612529201826,false,false,0.07072967663513752,0.08927032336486262,0.07072967663513752,false,false,0.024334371950624045,0.0073346986751083015,false,false
336,0.13199180100000002,0.9572793127400835,0.9876665704937588,1.0135590855767536,0.01727931274008354,0.1427206872599166,0.01727931274008354,false,false,0.047666570493758886,0.11233342950624126,0.047666570493758886,false,false,0.07355908557675361,0.08644091442324653,0.07355908557675361,false,false,0.01727931274008354,0.008777912270355778,false,false
36,0.041212241000000004,0.9809473112850327,0.9966137202591154,1.0051190451859906,0.040947311285032706,0.11905268871496744,0.040947311285032706,false,false,0.056613720259115485,0.10338627974088466,0.056613720259115485,false,false,0.06511904518599065,0.09488095481400949,0.06511904518599065,false,false,0.040947311285032706,0.0038731516675618223,false,false
